#\#CIF_2.0

##########################################################################
#               Crystallographic Information Format file
#               Produced by PyCifRW module
#
#  This is a CIF file.  CIF has been adopted by the International
#  Union of Crystallography as the standard for data archiving and
#  transmission.
#
#  For information on this file format, follow the CIF links at
#  http://www.iucr.org
##########################################################################

data_structure_0

_chemical_formula_sum [C  u  2]
_cell_length_a                          3.540000
_cell_length_b                          3.540000
_cell_length_c                          3.540000
_cell_angle_alpha                       90.000000
_cell_angle_beta                        90.000000
_cell_angle_gamma                       90.000000
_cell_volume                            44.361864
_symmetry_space_group_name_H-M          Im-3m
_symmetry_Int_Tables_number             229
loop_
  _symmetry_equiv_pos_site_id
  _symmetry_equiv_pos_as_xyz
         1         '+x,+y,+z'          
         2         '-x,-y,-z'          
         3         '+x,-z,+y'          
         4         '-x,+z,-y'          
         5         '+x,-y,-z'          
         6         '-x,+y,+z'          
         7         '+x,+z,-y'          
         8         '-x,-z,+y'          
         9         '-x,-y,+z'          
         10        '+x,+y,-z'          
         11        '-x,+z,+y'          
         12        '+x,-z,-y'          
         13        '-x,+y,-z'          
         14        '+x,-y,+z'          
         15        '-x,-z,-y'          
         16        '+x,+z,+y'          
         17        '+y,-z,-x'          
         18        '-y,+z,+x'          
         19        '-z,-y,-x'          
         20        '+z,+y,+x'          
         21        '-y,+z,-x'          
         22        '+y,-z,+x'          
         23        '+z,+y,-x'          
         24        '-z,-y,+x'          
         25        '-y,-z,+x'          
         26        '+y,+z,-x'          
         27        '+z,-y,+x'          
         28        '-z,+y,-x'          
         29        '+y,+z,+x'          
         30        '-y,-z,-x'          
         31        '-z,+y,+x'          
         32        '+z,-y,-x'          
         33        '-z,+x,-y'          
         34        '+z,-x,+y'          
         35        '-y,+x,+z'          
         36        '+y,-x,-z'          
         37        '+z,+x,+y'          
         38        '-z,-x,-y'          
         39        '+y,+x,-z'          
         40        '-y,-x,+z'          
         41        '-z,-x,+y'          
         42        '+z,+x,-y'          
         43        '-y,-x,-z'          
         44        '+y,+x,+z'          
         45        '+z,-x,-y'          
         46        '-z,+x,+y'          
         47        '+y,-x,+z'          
         48        '-y,+x,-z'          
         49        '+x+1/2,+y+1/2,+z+1/2'        
         50        '-x+1/2,-y+1/2,-z+1/2'        
         51        '+x+1/2,-z+1/2,+y+1/2'        
         52        '-x+1/2,+z+1/2,-y+1/2'        
         53        '+x+1/2,-y+1/2,-z+1/2'        
         54        '-x+1/2,+y+1/2,+z+1/2'        
         55        '+x+1/2,+z+1/2,-y+1/2'        
         56        '-x+1/2,-z+1/2,+y+1/2'        
         57        '-x+1/2,-y+1/2,+z+1/2'        
         58        '+x+1/2,+y+1/2,-z+1/2'        
         59        '-x+1/2,+z+1/2,+y+1/2'        
         60        '+x+1/2,-z+1/2,-y+1/2'        
         61        '-x+1/2,+y+1/2,-z+1/2'        
         62        '+x+1/2,-y+1/2,+z+1/2'        
         63        '-x+1/2,-z+1/2,-y+1/2'        
         64        '+x+1/2,+z+1/2,+y+1/2'        
         65        '+y+1/2,-z+1/2,-x+1/2'        
         66        '-y+1/2,+z+1/2,+x+1/2'        
         67        '-z+1/2,-y+1/2,-x+1/2'        
         68        '+z+1/2,+y+1/2,+x+1/2'        
         69        '-y+1/2,+z+1/2,-x+1/2'        
         70        '+y+1/2,-z+1/2,+x+1/2'        
         71        '+z+1/2,+y+1/2,-x+1/2'        
         72        '-z+1/2,-y+1/2,+x+1/2'        
         73        '-y+1/2,-z+1/2,+x+1/2'        
         74        '+y+1/2,+z+1/2,-x+1/2'        
         75        '+z+1/2,-y+1/2,+x+1/2'        
         76        '-z+1/2,+y+1/2,-x+1/2'        
         77        '+y+1/2,+z+1/2,+x+1/2'        
         78        '-y+1/2,-z+1/2,-x+1/2'        
         79        '-z+1/2,+y+1/2,+x+1/2'        
         80        '+z+1/2,-y+1/2,-x+1/2'        
         81        '-z+1/2,+x+1/2,-y+1/2'        
         82        '+z+1/2,-x+1/2,+y+1/2'        
         83        '-y+1/2,+x+1/2,+z+1/2'        
         84        '+y+1/2,-x+1/2,-z+1/2'        
         85        '+z+1/2,+x+1/2,+y+1/2'        
         86        '-z+1/2,-x+1/2,-y+1/2'        
         87        '+y+1/2,+x+1/2,-z+1/2'        
         88        '-y+1/2,-x+1/2,+z+1/2'        
         89        '-z+1/2,-x+1/2,+y+1/2'        
         90        '+z+1/2,+x+1/2,-y+1/2'        
         91        '-y+1/2,-x+1/2,-z+1/2'        
         92        '+y+1/2,+x+1/2,+z+1/2'        
         93        '+z+1/2,-x+1/2,-y+1/2'        
         94        '-z+1/2,+x+1/2,+y+1/2'        
         95        '+y+1/2,-x+1/2,+z+1/2'        
         96        '-y+1/2,+x+1/2,-z+1/2' 
loop_
  _atom_site_label
  _atom_site_type_symbol
  _atom_site_fract_x
  _atom_site_fract_y
  _atom_site_fract_z
  _atom_site_Wyckoff_symbol
  _atom_site_occupancy
         Cu0       Cu+0      0.000000  0.000000  0.000000  a         1.000000  
         Cu0       Cu+0      0.500000  0.500000  0.500000  a         1.000000 
loop_
  _atom_type_symbol
  _atom_type_oxidation_number
         Cu        0 